Version 4
SHEET 1 1788 680
WIRE -736 -112 -736 -128
WIRE 80 -32 16 -32
WIRE 208 -32 144 -32
WIRE 896 -32 848 -32
WIRE 1040 -32 960 -32
WIRE -736 -16 -736 -32
WIRE -736 -16 -864 -16
WIRE -640 -16 -736 -16
WIRE -864 0 -864 -16
WIRE -736 0 -736 -16
WIRE 16 64 16 -32
WIRE 64 64 16 64
WIRE 208 64 208 -32
WIRE 208 64 144 64
WIRE 848 64 848 -32
WIRE 896 64 848 64
WIRE 1040 64 1040 -32
WIRE 1040 64 976 64
WIRE -480 80 -480 64
WIRE -864 96 -864 80
WIRE -736 96 -736 80
WIRE 96 160 96 144
WIRE -480 176 -480 160
WIRE -432 176 -480 176
WIRE -128 176 -432 176
WIRE 16 176 16 64
WIRE 16 176 -48 176
WIRE 64 176 16 176
WIRE 912 176 912 160
WIRE 208 192 208 64
WIRE 208 192 128 192
WIRE 240 192 240 -16
WIRE 240 192 208 192
WIRE 272 192 240 192
WIRE 320 192 272 192
WIRE 416 192 400 192
WIRE 448 192 416 192
WIRE 560 192 528 192
WIRE 592 192 560 192
WIRE 704 192 672 192
WIRE 752 192 704 192
WIRE 848 192 848 64
WIRE 848 192 832 192
WIRE 880 192 848 192
WIRE 64 208 32 208
WIRE 416 208 416 192
WIRE 560 208 560 192
WIRE 704 208 704 192
WIRE 1040 208 1040 64
WIRE 1040 208 944 208
WIRE 1072 208 1040 208
WIRE 1168 208 1152 208
WIRE 1216 208 1168 208
WIRE 1312 208 1296 208
WIRE 1376 208 1312 208
WIRE 1472 208 1456 208
WIRE 1728 208 1472 208
WIRE 880 224 848 224
WIRE 1168 224 1168 208
WIRE 1312 224 1312 208
WIRE 1472 224 1472 208
WIRE 32 240 32 208
WIRE 96 240 96 224
WIRE 848 256 848 224
WIRE 912 256 912 240
WIRE 416 288 416 272
WIRE 560 288 560 272
WIRE 704 288 704 272
WIRE 1168 304 1168 288
WIRE 1312 304 1312 288
WIRE 1472 304 1472 288
FLAG -736 -128 V+
FLAG -736 96 V-
FLAG 96 144 V+
FLAG 96 240 V-
FLAG 272 192 Vo
FLAG -480 64 V0
FLAG 32 240 V0
FLAG -640 -16 V0
FLAG -864 96 0
FLAG -432 176 Vi
FLAG 912 160 V+
FLAG 912 256 V-
FLAG 848 256 V0
FLAG 1728 208 Vo2
FLAG 416 288 V0
FLAG 560 288 V0
FLAG 704 288 V0
FLAG 1168 304 V0
FLAG 1312 304 V0
FLAG 1472 304 V0
SYMBOL Opamps\\opamp2 96 128 R0
SYMATTR InstName U1
SYMATTR Value TLC272
SYMBOL voltage -736 -128 R0
WINDOW 3 52 46 Left 2
WINDOW 123 0 0 Left 0
WINDOW 39 51 69 Left 2
SYMATTR InstName V1
SYMATTR Value 5
SYMATTR SpiceLine Rser=10
SYMBOL voltage -736 -16 R0
WINDOW 3 26 89 Left 2
WINDOW 123 0 0 Left 0
WINDOW 39 26 117 Left 2
SYMATTR InstName V2
SYMATTR Value 5
SYMATTR SpiceLine Rser=10
SYMBOL res 160 48 R90
WINDOW 0 0 56 VBottom 2
WINDOW 3 32 56 VTop 2
SYMATTR InstName R2
SYMATTR Value 10Meg
SYMBOL current -480 80 R0
WINDOW 3 -93 120 Left 2
WINDOW 123 0 0 Left 0
WINDOW 39 0 0 Left 0
SYMATTR InstName I1
SYMATTR Value PWL(0 0 10 1n 20 10n 30 100n)
SYMBOL voltage -864 -16 R0
WINDOW 123 0 0 Left 0
WINDOW 39 0 0 Left 0
SYMATTR InstName V3
SYMATTR Value 1k
SYMBOL Opamps\\opamp2 912 144 R0
SYMATTR InstName U2
SYMATTR Value TLC272
SYMBOL res 688 176 R90
WINDOW 0 0 56 VBottom 2
WINDOW 3 32 56 VTop 2
SYMATTR InstName R1
SYMATTR Value 82k
SYMBOL res 992 48 R90
WINDOW 0 0 56 VBottom 2
WINDOW 3 32 56 VTop 2
SYMATTR InstName R3
SYMATTR Value 47k
SYMBOL cap 144 -48 R90
WINDOW 0 0 32 VBottom 2
WINDOW 3 32 32 VTop 2
SYMATTR InstName C1
SYMATTR Value 10p
SYMBOL res 416 176 R90
WINDOW 0 0 56 VBottom 2
WINDOW 3 32 56 VTop 2
SYMATTR InstName R4
SYMATTR Value 47k
SYMBOL cap 400 208 R0
SYMATTR InstName C2
SYMATTR Value 100n
SYMBOL res 544 176 R90
WINDOW 0 0 56 VBottom 2
WINDOW 3 32 56 VTop 2
SYMATTR InstName R5
SYMATTR Value 100k
SYMBOL cap 544 208 R0
SYMATTR InstName C3
SYMATTR Value 100n
SYMBOL cap 960 -48 R90
WINDOW 0 0 32 VBottom 2
WINDOW 3 32 32 VTop 2
SYMATTR InstName C4
SYMATTR Value 10n
SYMBOL cap 688 208 R0
SYMATTR InstName C5
SYMATTR Value 100n
SYMBOL res 848 176 R90
WINDOW 0 0 56 VBottom 2
WINDOW 3 32 56 VTop 2
SYMATTR InstName R6
SYMATTR Value 10k
SYMBOL res 1472 192 R90
WINDOW 0 0 56 VBottom 2
WINDOW 3 32 56 VTop 2
SYMATTR InstName R7
SYMATTR Value 82k
SYMBOL res 1168 192 R90
WINDOW 0 0 56 VBottom 2
WINDOW 3 32 56 VTop 2
SYMATTR InstName R8
SYMATTR Value 47k
SYMBOL cap 1152 224 R0
SYMATTR InstName C6
SYMATTR Value 100n
SYMBOL res 1312 192 R90
WINDOW 0 0 56 VBottom 2
WINDOW 3 32 56 VTop 2
SYMATTR InstName R9
SYMATTR Value 100k
SYMBOL cap 1296 224 R0
SYMATTR InstName C7
SYMATTR Value 100n
SYMBOL cap 1456 224 R0
SYMATTR InstName C8
SYMATTR Value 100n
SYMBOL res -32 160 R90
WINDOW 0 0 56 VBottom 2
WINDOW 3 32 56 VTop 2
SYMATTR InstName R10
SYMATTR Value 100
TEXT 136 248 Left 2 !.lib TLC272.5_1
TEXT -796 160 Left 2 !;tran 100m
TEXT 200 -56 Left 2 ;Guard Ring
TEXT -944 -40 Left 2 ;external bias
TEXT -912 -200 Left 2 ;supply voltage generation
TEXT 96 -120 Left 2 ;TIA
TEXT 856 -120 Left 2 ;inv. amplifier
TEXT 928 -160 Left 2 !.noise V(Vo2) I1 dec 1000 0.1 1G
TEXT 392 136 Left 2 ;low pass filter
TEXT 1200 144 Left 2 ;low pass filter
TEXT 934 -202 Left 2 !;.tran 40
RECTANGLE Normal 608 304 -32 -96 2
RECTANGLE Normal 1152 304 608 -96 2
