Version 4
SHEET 1 1980 680
WIRE -736 -112 -736 -128
WIRE 80 -32 16 -32
WIRE 208 -32 144 -32
WIRE 1008 -32 960 -32
WIRE 1152 -32 1072 -32
WIRE -736 -16 -736 -32
WIRE -736 -16 -864 -16
WIRE -640 -16 -736 -16
WIRE -864 0 -864 -16
WIRE -736 0 -736 -16
WIRE 16 64 16 -32
WIRE 64 64 16 64
WIRE 208 64 208 -32
WIRE 208 64 144 64
WIRE 960 64 960 -32
WIRE 1008 64 960 64
WIRE 1152 64 1152 -32
WIRE 1152 64 1088 64
WIRE -480 80 -480 64
WIRE -864 96 -864 80
WIRE -736 96 -736 80
WIRE 96 160 96 144
WIRE -480 176 -480 160
WIRE -432 176 -480 176
WIRE -128 176 -432 176
WIRE 16 176 16 64
WIRE 16 176 -48 176
WIRE 64 176 16 176
WIRE 1024 176 1024 160
WIRE 208 192 208 64
WIRE 208 192 128 192
WIRE 240 192 240 -48
WIRE 240 192 208 192
WIRE 272 192 240 192
WIRE 352 192 272 192
WIRE 448 192 432 192
WIRE 480 192 448 192
WIRE 592 192 560 192
WIRE 624 192 592 192
WIRE 736 192 704 192
WIRE 864 192 736 192
WIRE 960 192 960 64
WIRE 960 192 944 192
WIRE 992 192 960 192
WIRE 64 208 32 208
WIRE 448 208 448 192
WIRE 592 208 592 192
WIRE 736 208 736 192
WIRE 1152 208 1152 64
WIRE 1152 208 1056 208
WIRE 1264 208 1152 208
WIRE 1360 208 1344 208
WIRE 1408 208 1360 208
WIRE 1504 208 1488 208
WIRE 1568 208 1504 208
WIRE 1664 208 1648 208
WIRE 1920 208 1664 208
WIRE 992 224 960 224
WIRE 1360 224 1360 208
WIRE 1504 224 1504 208
WIRE 1664 224 1664 208
WIRE 32 240 32 208
WIRE 96 240 96 224
WIRE 960 256 960 224
WIRE 1024 256 1024 240
WIRE 448 288 448 272
WIRE 592 288 592 272
WIRE 736 288 736 272
WIRE 1360 304 1360 288
WIRE 1504 304 1504 288
WIRE 1664 304 1664 288
FLAG -736 -128 V+
FLAG -736 96 V-
FLAG 96 144 V+
FLAG 96 240 V-
FLAG 272 192 Vo
FLAG -480 64 V0
FLAG 32 240 V0
FLAG -640 -16 V0
FLAG -864 96 0
FLAG -432 176 Vi
FLAG 1024 160 V+
FLAG 1024 256 V-
FLAG 960 256 V0
FLAG 1920 208 Vo2
FLAG 448 288 V0
FLAG 592 288 V0
FLAG 736 288 V0
FLAG 1360 304 V0
FLAG 1504 304 V0
FLAG 1664 304 V0
SYMBOL Opamps\\opamp2 96 128 R0
SYMATTR InstName U1
SYMATTR Value TLC272
SYMBOL voltage -736 -128 R0
WINDOW 3 52 46 Left 2
WINDOW 123 0 0 Left 0
WINDOW 39 51 69 Left 2
SYMATTR InstName V1
SYMATTR Value 5
SYMATTR SpiceLine Rser=10
SYMBOL voltage -736 -16 R0
WINDOW 3 26 89 Left 2
WINDOW 123 0 0 Left 0
WINDOW 39 26 117 Left 2
SYMATTR InstName V2
SYMATTR Value 5
SYMATTR SpiceLine Rser=10
SYMBOL res 160 48 R90
WINDOW 0 0 56 VBottom 2
WINDOW 3 32 56 VTop 2
SYMATTR InstName R2
SYMATTR Value 10Meg
SYMBOL current -480 80 R0
WINDOW 3 -93 120 Left 2
WINDOW 123 0 0 Left 0
WINDOW 39 0 0 Left 0
SYMATTR InstName I1
SYMATTR Value PWL(0 0 10 1n 20 10n 30 100n)
SYMBOL voltage -864 -16 R0
WINDOW 123 0 0 Left 0
WINDOW 39 0 0 Left 0
SYMATTR InstName V3
SYMATTR Value 1k
SYMBOL Opamps\\opamp2 1024 144 R0
SYMATTR InstName U2
SYMATTR Value TLC272
SYMBOL res 720 176 R90
WINDOW 0 0 56 VBottom 2
WINDOW 3 32 56 VTop 2
SYMATTR InstName R1
SYMATTR Value 82k
SYMBOL res 1104 48 R90
WINDOW 0 0 56 VBottom 2
WINDOW 3 32 56 VTop 2
SYMATTR InstName R3
SYMATTR Value 47k
SYMBOL cap 144 -48 R90
WINDOW 0 0 32 VBottom 2
WINDOW 3 32 32 VTop 2
SYMATTR InstName C1
SYMATTR Value 10p
SYMBOL res 448 176 R90
WINDOW 0 0 56 VBottom 2
WINDOW 3 32 56 VTop 2
SYMATTR InstName R4
SYMATTR Value 47k
SYMBOL cap 432 208 R0
SYMATTR InstName C2
SYMATTR Value 100n
SYMBOL res 576 176 R90
WINDOW 0 0 56 VBottom 2
WINDOW 3 32 56 VTop 2
SYMATTR InstName R5
SYMATTR Value 100k
SYMBOL cap 576 208 R0
SYMATTR InstName C3
SYMATTR Value 100n
SYMBOL cap 1072 -48 R90
WINDOW 0 0 32 VBottom 2
WINDOW 3 32 32 VTop 2
SYMATTR InstName C4
SYMATTR Value 10n
SYMBOL cap 720 208 R0
SYMATTR InstName C5
SYMATTR Value 100n
SYMBOL res 960 176 R90
WINDOW 0 0 56 VBottom 2
WINDOW 3 32 56 VTop 2
SYMATTR InstName R6
SYMATTR Value 10k
SYMBOL res 1664 192 R90
WINDOW 0 0 56 VBottom 2
WINDOW 3 32 56 VTop 2
SYMATTR InstName R7
SYMATTR Value 82k
SYMBOL res 1360 192 R90
WINDOW 0 0 56 VBottom 2
WINDOW 3 32 56 VTop 2
SYMATTR InstName R8
SYMATTR Value 47k
SYMBOL cap 1344 224 R0
SYMATTR InstName C6
SYMATTR Value 100n
SYMBOL res 1504 192 R90
WINDOW 0 0 56 VBottom 2
WINDOW 3 32 56 VTop 2
SYMATTR InstName R9
SYMATTR Value 100k
SYMBOL cap 1488 224 R0
SYMATTR InstName C7
SYMATTR Value 100n
SYMBOL cap 1648 224 R0
SYMATTR InstName C8
SYMATTR Value 100n
SYMBOL res -32 160 R90
WINDOW 0 0 56 VBottom 2
WINDOW 3 32 56 VTop 2
SYMATTR InstName R10
SYMATTR Value 100
TEXT 64 -176 Left 2 !.lib TLC272.5_1
TEXT -796 160 Left 2 !;tran 100m
TEXT 176 -72 Left 2 ;Guard Ring
TEXT -944 -40 Left 2 ;external bias
TEXT -912 -200 Left 2 ;supply voltage generation
TEXT 96 -120 Left 2 ;TIA
TEXT 968 -120 Left 2 ;inv. amplifier
TEXT 928 -160 Left 2 !.noise V(Vo2) I1 dec 1000 0.1 1G
TEXT 504 -56 Left 2 ;low pass filter
TEXT 1392 144 Left 2 ;low pass filter
TEXT 934 -202 Left 2 !;.tran 40
TEXT 1400 -56 Left 2 ;low pass filter
RECTANGLE Normal 320 304 -16 -96 2
RECTANGLE Normal 1216 304 832 -96 2
RECTANGLE Normal 1760 368 1232 -32 2
RECTANGLE Normal 816 368 336 -32 2
