Version 4
SHEET 1 880 680
WIRE -560 -128 -560 -144
WIRE -560 -32 -560 -48
WIRE -560 -32 -688 -32
WIRE -464 -32 -560 -32
WIRE -688 -16 -688 -32
WIRE -560 -16 -560 -32
WIRE 64 32 16 32
WIRE 208 32 144 32
WIRE 496 64 480 64
WIRE 672 64 576 64
WIRE -688 80 -688 64
WIRE -560 80 -560 64
WIRE -112 80 -112 64
WIRE 96 160 96 144
WIRE -112 176 -112 160
WIRE -32 176 -112 176
WIRE 16 176 16 32
WIRE 16 176 -32 176
WIRE 64 176 16 176
WIRE 544 176 544 160
WIRE 208 192 208 32
WIRE 208 192 128 192
WIRE 272 192 208 192
WIRE 368 192 272 192
WIRE 480 192 480 64
WIRE 480 192 448 192
WIRE 512 192 480 192
WIRE 64 208 32 208
WIRE 672 208 672 64
WIRE 672 208 576 208
WIRE 720 208 672 208
WIRE 768 208 720 208
WIRE 512 224 480 224
WIRE 32 240 32 208
WIRE 96 240 96 224
WIRE 480 256 480 224
WIRE 544 256 544 240
FLAG -560 -144 V+
FLAG -560 80 V-
FLAG 96 144 V+
FLAG 96 240 V-
FLAG 272 192 Vo
FLAG -112 64 V0
FLAG 32 240 V0
FLAG -464 -32 V0
FLAG -688 80 0
FLAG -32 176 Vi
FLAG 544 160 V+
FLAG 544 256 V-
FLAG 480 256 V0
FLAG 720 208 Vo2
SYMBOL Opamps\\opamp2 96 128 R0
SYMATTR InstName U1
SYMATTR Value TLC272
SYMBOL voltage -560 -144 R0
WINDOW 123 0 0 Left 0
WINDOW 39 0 0 Left 0
SYMATTR InstName V1
SYMATTR Value 5
SYMBOL voltage -560 -32 R0
WINDOW 3 26 89 Left 2
WINDOW 123 0 0 Left 0
WINDOW 39 0 0 Left 0
SYMATTR InstName V2
SYMATTR Value 5
SYMBOL res 160 16 R90
WINDOW 0 0 56 VBottom 2
WINDOW 3 32 56 VTop 2
SYMATTR InstName R2
SYMATTR Value 10Meg
SYMBOL current -112 80 R0
WINDOW 3 -14 257 Left 2
WINDOW 123 0 0 Left 0
WINDOW 39 0 0 Left 0
SYMATTR InstName I1
SYMATTR Value PWL(0 0 10m 1n 20m 10n 30m 100n)
SYMBOL voltage -688 -32 R0
WINDOW 123 0 0 Left 0
WINDOW 39 0 0 Left 0
SYMATTR InstName V3
SYMATTR Value 1k
SYMBOL Opamps\\opamp2 544 144 R0
SYMATTR InstName U2
SYMATTR Value TLC272
SYMBOL res 464 176 R90
WINDOW 0 0 56 VBottom 2
WINDOW 3 32 56 VTop 2
SYMATTR InstName R1
SYMATTR Value 10k
SYMBOL res 592 48 R90
WINDOW 0 0 56 VBottom 2
WINDOW 3 32 56 VTop 2
SYMATTR InstName R3
SYMATTR Value 47k
TEXT 136 248 Left 2 !.lib TLC272.5_1
TEXT -444 -280 Left 2 !.tran 100m
